models/240bus_psse/240busWECC_2018_PSS_PQLoad_fixedshunt_rm0load.raw
 0, 100.00, 34,  ,  ,   / WECC 240 SYSTEM, V0.2, DEVELOPED BY NREL. CONTACT: HAOYU.YUAN@NREL.GOV
This is a reduced WECC 240-bus power system model reflecting WECC generation resource mix in 2018 and representing the summer peak load. It was developed by NREL and contains no CEII.
Reference: H. Yuan, R. S. Biswas, J. Tan and Y. Zhang, "Developing a Reduced 240-Bus WECC Dynamic Model for Frequency Response Study of High Renewable Integration," IEEE/PES Transmission and Distribution Conference and Exposition (T&D), Chicago, IL, USA, 2020.
0 / END OF SYSTEM-WIDE DATA, BEGIN BUS DATA
  1001,'FOURCORN    ', 500.0000,1,   1,   3,   1,1.03401,   5.5785,1.10000,0.90000,1.10000,0.90000
  1002,'FOURCORN    ', 345.0000,1,   1,   3,   1,1.01400,   8.3685,1.10000,0.90000,1.10000,0.90000
  1003,'FOURCORN    ', 230.0000,1,   1,  10,   1,0.97318,  -0.2920,1.10000,0.90000,1.10000,0.90000
  1004,'SAN JUAN    ', 345.0000,1,   1,  10,   1,1.03000,  18.8075,1.10000,0.90000,1.10000,0.90000
  1032,'FCNGN4CC    ',  20.0000,2,   1,  10,   1,1.01390,   8.9503,1.10000,0.90000,1.10000,0.90000
  1034,'SJUAN G4    ',  20.0000,2,   1,  10,   1,1.03341,  20.4253,1.10000,0.90000,1.10000,0.90000
  1101,'CORONADO    ', 500.0000,1,   1,   3,   1,1.01000, -13.5878,1.10000,0.90000,1.10000,0.90000
  1102,'CHOLLA      ', 345.0000,1,   1,   3,   1,0.99465,  -4.7874,1.10000,0.90000,1.10000,0.90000
  1131,'CORONADO    ',  20.0000,2,   1,   3,   1,1.00946, -12.8589,1.10000,0.90000,1.10000,0.90000
  1201,'MOENKOPI    ', 500.0000,1,   1,   3,   1,1.09136,  -6.6183,1.10000,0.90000,1.10000,0.90000
  1202,'NAVAJO      ', 500.0000,1,   1,   3,   1,1.08000,  -3.8673,1.10000,0.90000,1.10000,0.90000
  1232,'NAVAJO 2    ',  20.0000,2,   1,   3,   1,1.07990,  -3.0358,1.10000,0.90000,1.10000,0.90000
  1301,'MEAD        ', 500.0000,1,   1,   3,   1,1.04500,  -9.8666,1.10000,0.90000,1.10000,0.90000
  1302,'H ALLEN     ', 500.0000,1,   1,   9,   1,1.02442, -11.6849,1.10000,0.90000,1.10000,0.90000
  1303,'H ALLEN     ', 345.0000,1,   1,   9,   1,1.00500, -15.2256,1.10000,0.90000,1.10000,0.90000
  1331,'HOOVER      ',  20.0000,2,   1,   3,   1,1.04505,  -8.7861,1.10000,0.90000,1.10000,0.90000
  1333,'H ALLEN     ',  20.0000,2,   1,   9,   1,1.00792, -13.7701,1.10000,0.90000,1.10000,0.90000
  1401,'PALOVRDE    ', 500.0000,1,   1,   3,   1,1.03500, -14.7822,1.10000,0.90000,1.10000,0.90000
  1402,'WESTWING    ', 500.0000,1,   1,   3,   1,1.05895, -20.3570,1.10000,0.90000,1.10000,0.90000
  1403,'PARKER      ', 230.0000,1,   1,   3,   1,1.03527, -14.4059,1.10000,0.90000,1.10000,0.90000
  1431,'PALOVRD2    ',  20.0000,2,   1,   3,   1,1.04004, -12.4298,1.10000,0.90000,1.10000,0.90000
  2000,'MEXICO      ', 230.0000,1,   4,   7,   1,1.00000, -16.7754,1.10000,0.90000,1.10000,0.90000
  2030,'MEXICO      ',  20.0000,2,   4,   7,   1,1.00135, -16.0721,1.10000,0.90000,1.10000,0.90000
  2100,'IMPERIAL    ', 230.0000,1,   2,   2,   1,1.03500, -12.4531,1.10000,0.90000,1.10000,0.90000
  2130,'IMPERIAL    ',  20.0000,2,   2,   2,   1,1.03554, -12.0979,1.10000,0.90000,1.10000,0.90000
  2201,'MIGUEL      ', 500.0000,1,   2,   2,   1,0.99375, -26.5153,1.10000,0.90000,1.10000,0.90000
  2202,'MIGUEL      ', 230.0000,1,   2,   2,   1,0.99067, -27.7043,1.10000,0.90000,1.10000,0.90000
  2203,'MISSION     ', 230.0000,1,   2,   2,   1,1.00500, -27.9287,1.10000,0.90000,1.10000,0.90000
  2233,'MISSION     ',  20.0000,2,   2,   2,   1,1.00686, -27.6476,1.10000,0.90000,1.10000,0.90000
  2301,'IMPRLVLY    ', 500.0000,1,   2,   2,   1,1.03560, -14.9787,1.10000,0.90000,1.10000,0.90000
  2302,'IMPRLVLY    ', 230.0000,1,   2,   2,   1,1.03500, -13.8866,1.10000,0.90000,1.10000,0.90000
  2332,'IMPRLVLY    ',  20.0000,2,   2,   2,   1,1.03520, -13.6518,1.10000,0.90000,1.10000,0.90000
  2400,'DEVERS      ', 500.0000,1,   2,   2,   1,1.02954, -19.7851,1.10000,0.90000,1.10000,0.90000
  2401,'LUGO        ', 500.0000,1,   2,   2,   1,1.05000, -13.6953,1.10000,0.90000,1.10000,0.90000
  2402,'MIRALOMA    ', 500.0000,1,   2,   2,   1,1.03174, -18.0034,1.10000,0.90000,1.10000,0.90000
  2403,'VALLEY      ', 500.0000,1,   2,   2,   1,1.02708, -22.3928,1.10000,0.90000,1.10000,0.90000
  2404,'VINCENT     ', 500.0000,1,   2,   2,   1,1.03914,  -9.9290,1.10000,0.90000,1.10000,0.90000
  2405,'SYLMAR S    ', 230.0000,1,   2,   2,   1,1.01146, -11.0446,1.10000,0.90000,1.10000,0.90000
  2406,'EAGLROCK    ', 230.0000,1,   2,   2,   1,1.00777, -14.9652,1.10000,0.90000,1.10000,0.90000
  2407,'LITEHIPE    ', 230.0000,1,   2,   2,   1,0.97489, -20.8953,1.10000,0.90000,1.10000,0.90000
  2408,'MESA CAL    ', 230.0000,1,   2,   2,   1,1.00900,  -9.1772,1.10000,0.90000,1.10000,0.90000
  2409,'MIRALOMA    ', 230.0000,1,   2,   2,   1,1.02000, -18.7773,1.10000,0.90000,1.10000,0.90000
  2410,'PARDEE      ', 230.0000,1,   2,   2,   1,1.00710, -14.6945,1.10000,0.90000,1.10000,0.90000
  2411,'VINCENT     ', 230.0000,1,   2,   2,   1,1.02033, -11.4155,1.10000,0.90000,1.10000,0.90000
  2431,'LUGO        ',  20.0000,2,   2,   2,   1,1.04996, -13.6693,1.10000,0.90000,1.10000,0.90000
  2434,'VINCENT     ',  20.0000,2,   2,   2,   1,1.02000, -11.3880,1.10000,0.90000,1.10000,0.90000
  2438,'MESA CAL    ',  20.0000,2,   2,   2,   1,1.00981,  -7.7532,1.10000,0.90000,1.10000,0.90000
  2439,'MIRALOMA    ',  20.0000,2,   2,   2,   1,1.01976, -18.7223,1.10000,0.90000,1.10000,0.90000
  2501,'SERRANO     ', 500.0000,1,   2,   2,   1,1.02693, -20.2708,1.10000,0.90000,1.10000,0.90000
  2502,'SERRANO     ', 230.0000,1,   2,   2,   1,1.02320, -21.6056,1.10000,0.90000,1.10000,0.90000
  2503,'S.ONOFRE    ', 230.0000,1,   2,   2,   1,1.00900, -23.5705,1.10000,0.90000,1.10000,0.90000
  2533,'S.ONOFRE    ',  20.0000,2,   2,   2,   1,1.00959, -23.0364,1.10000,0.90000,1.10000,0.90000
  2600,'ADELANTO    ', 500.0000,1,   2,   2,   1,1.05578,  -9.3695,1.10000,0.90000,1.10000,0.90000
  2601,'RINALDI     ', 500.0000,1,   2,   2,   1,1.04794,  -9.8178,1.10000,0.90000,1.10000,0.90000
  2602,'STA E       ', 500.0000,1,   2,   2,   1,1.02251,  -9.4350,1.10000,0.90000,1.10000,0.90000
  2603,'VICTORVL    ', 500.0000,1,   2,   2,   1,1.05656, -10.0289,1.10000,0.90000,1.10000,0.90000
  2604,'INTERMT     ', 345.0000,1,   2,   2,   1,1.03000,  -3.3390,1.10000,0.90000,1.10000,0.90000
  2605,'STA B1      ', 287.0000,1,   2,   2,   1,1.02096,  -7.2426,1.10000,0.90000,1.10000,0.90000
  2606,'STA B2      ', 287.0000,1,   2,   2,   1,1.02096,  -7.2426,1.10000,0.90000,1.10000,0.90000
  2607,'VICTORVL    ', 287.0000,1,   2,   2,   1,1.04732,  -9.0980,1.10000,0.90000,1.10000,0.90000
  2608,'CASTAIC     ', 230.0000,1,   2,   2,   1,1.01500,  -9.4369,1.10000,0.90000,1.10000,0.90000
  2609,'GLENDAL     ', 230.0000,1,   2,   2,   1,0.99971,  -7.7201,1.10000,0.90000,1.10000,0.90000
  2610,'HAYNES      ', 230.0000,1,   2,   2,   1,1.00400,   6.4589,1.10000,0.90000,1.10000,0.90000
  2611,'OLIVE       ', 230.0000,1,   2,   2,   1,1.01500,  -9.6301,1.10000,0.90000,1.10000,0.90000
  2612,'RINALDI     ', 230.0000,1,   2,   2,   1,1.01357,  -9.9960,1.10000,0.90000,1.10000,0.90000
  2613,'RIVER       ', 230.0000,1,   2,   2,   1,0.99477,  -4.2231,1.10000,0.90000,1.10000,0.90000
  2614,'STA BLD     ', 230.0000,1,   2,   2,   1,1.00215,  -5.8005,1.10000,0.90000,1.10000,0.90000
  2615,'STA E       ', 230.0000,1,   2,   2,   1,1.00539,  -9.1473,1.10000,0.90000,1.10000,0.90000
  2616,'STA F       ', 230.0000,1,   2,   2,   1,0.99670,  -4.5571,1.10000,0.90000,1.10000,0.90000
  2617,'STA G       ', 230.0000,1,   2,   2,   1,0.99769,  -6.2866,1.10000,0.90000,1.10000,0.90000
  2618,'STA J       ', 230.0000,1,   2,   2,   1,1.01112, -10.9936,1.10000,0.90000,1.10000,0.90000
  2619,'SYLMARLA    ', 230.0000,1,   2,   2,   1,1.01253,  -9.6918,1.10000,0.90000,1.10000,0.90000
  2620,'VALLEY      ', 230.0000,1,   2,   2,   1,1.00929, -10.0536,1.10000,0.90000,1.10000,0.90000
  2621,'STA B       ', 138.0000,1,   2,   2,   1,1.01278,  -6.9051,1.10000,0.90000,1.10000,0.90000
  2630,'HAYNES3G    ',  20.0000,2,   2,   2,   1,1.00486,   7.1069,1.10000,0.90000,1.10000,0.90000
  2631,'OLIVE       ',  20.0000,2,   2,   2,   1,1.01516,  -9.5656,1.10000,0.90000,1.10000,0.90000
  2634,'INTERM1G    ',  20.0000,2,   2,   2,   1,1.02988,  -2.9240,1.10000,0.90000,1.10000,0.90000
  2637,'OWENS G     ',  20.0000,2,   2,   2,   1,1.01377,  -9.9729,1.10000,0.90000,1.10000,0.90000
  2638,'CASTAI4G    ',  20.0000,2,   2,   2,   1,1.01504,  -9.3813,1.10000,0.90000,1.10000,0.90000
  2901,'ELDORADO    ', 500.0000,1,   2,   2,   1,1.10739,  -9.9996,1.10000,0.90000,1.10000,0.90000
  2902,'MOHAVE      ', 500.0000,1,   2,   2,   1,1.11740, -11.1977,1.10000,0.90000,1.10000,0.90000
  3101,'EMBRCDRD    ', 230.0000,1,   2,   2,   1,0.98132,  -7.7767,1.10000,0.90000,1.10000,0.90000
  3102,'MARTIN      ', 230.0000,1,   2,   2,   1,0.98603,  -6.6336,1.10000,0.90000,1.10000,0.90000
  3103,'SANMATEO    ', 230.0000,1,   2,   2,   1,0.99272,  -4.5012,1.10000,0.90000,1.10000,0.90000
  3104,'MARTIN      ', 115.0000,1,   2,   2,   1,0.98581, -11.4950,1.10000,0.90000,1.10000,0.90000
  3105,'POTRERO     ', 115.0000,1,   2,   2,   1,1.00000, -11.5056,1.10000,0.90000,1.10000,0.90000
  3133,'SANMATEO    ',  20.0000,2,   2,   2,   1,0.99266,  -4.4922,1.10000,0.90000,1.10000,0.90000
  3135,'POTRERO     ',  20.0000,2,   2,   2,   1,1.00043, -11.4426,1.10000,0.90000,1.10000,0.90000
  3201,'C.COSTA     ', 230.0000,1,   2,   2,   1,1.00361,  -4.5744,1.10000,0.90000,1.10000,0.90000
  3202,'MORAGA      ', 230.0000,1,   2,   2,   1,1.00231,  -4.1296,1.10000,0.90000,1.10000,0.90000
  3203,'NEWARK      ', 230.0000,1,   2,   2,   1,1.00055,  -4.2221,1.10000,0.90000,1.10000,0.90000
  3204,'PITSBURG    ', 230.0000,1,   2,   2,   1,1.01000,   0.1458,1.10000,0.90000,1.10000,0.90000
  3205,'SOBRANTE    ', 230.0000,1,   2,   2,   1,1.00081,  -2.5203,1.10000,0.90000,1.10000,0.90000
  3234,'PITSBURG    ',  20.0000,2,   2,   2,   1,1.01207,   1.2652,1.10000,0.90000,1.10000,0.90000
  3301,'METCALF     ', 500.0000,1,   2,   2,   1,1.01131,  -4.7303,1.10000,0.90000,1.10000,0.90000
  3302,'JEFFERSN    ', 230.0000,1,   2,   2,   1,0.98430,  -7.6693,1.10000,0.90000,1.10000,0.90000
  3303,'METCALF     ', 230.0000,1,   2,   2,   1,1.00000,  -5.4781,1.10000,0.90000,1.10000,0.90000
  3304,'MONTAVIS    ', 230.0000,1,   2,   2,   1,0.98986,  -7.0451,1.10000,0.90000,1.10000,0.90000
  3305,'RAVENSWD    ', 230.0000,1,   2,   2,   1,0.99494,  -4.7831,1.10000,0.90000,1.10000,0.90000
  3333,'METCALF     ',  20.0000,2,   2,   2,   1,1.00081,  -5.2460,1.10000,0.90000,1.10000,0.90000
  3401,'GREGG       ', 230.0000,1,   2,   2,   1,0.96667, -13.8507,1.10000,0.90000,1.10000,0.90000
  3402,'HELMS PP    ', 230.0000,1,   2,   2,   1,0.96880, -13.8643,1.10000,0.90000,1.10000,0.90000
  3403,'MC CALL     ', 230.0000,1,   2,   2,   1,1.00000,  -1.5414,1.10000,0.90000,1.10000,0.90000
  3404,'PANOCHE     ', 230.0000,1,   2,   2,   1,0.98837,  -8.6626,1.10000,0.90000,1.10000,0.90000
  3405,'WILSON      ', 230.0000,1,   2,   2,   1,0.96210, -15.5760,1.10000,0.90000,1.10000,0.90000
  3432,'HELMS PP    ',  20.0000,1,   2,   2,   1,0.96880, -13.8643,1.10000,0.90000,1.10000,0.90000
  3433,'MC CALL     ',  20.0000,2,   2,   2,   1,1.00024,  -1.1903,1.10000,0.90000,1.10000,0.90000
  3501,'FULTON      ', 230.0000,1,   2,   2,   1,1.00000,   1.6159,1.10000,0.90000,1.10000,0.90000
  3531,'FULTON      ',  20.0000,2,   2,   2,   1,1.00036,   1.9278,1.10000,0.90000,1.10000,0.90000
  3601,'HUMBOLDT    ', 115.0000,1,   2,   2,   1,1.01500,  -3.9450,1.10000,0.90000,1.10000,0.90000
  3631,'HUMBOLDT    ',  20.0000,2,   2,   2,   1,1.01477,  -3.9180,1.10000,0.90000,1.10000,0.90000
  3701,'SUMMIT      ', 115.0000,1,   1,   9,   1,1.00657, -20.6887,1.10000,0.90000,1.10000,0.90000
  3731,'SUMMIT      ',  20.0000,2,   1,   9,   1,1.00596, -20.6259,1.10000,0.90000,1.10000,0.90000
  3801,'DIABLO      ', 500.0000,1,   2,   2,   1,1.04900,   0.2332,1.10000,0.90000,1.10000,0.90000
  3802,'GATES       ', 500.0000,1,   2,   2,   1,1.03709,  -5.7476,1.10000,0.90000,1.10000,0.90000
  3803,'MIDWAY      ', 500.0000,1,   2,   2,   1,1.04616,  -7.1165,1.10000,0.90000,1.10000,0.90000
  3804,'GATES       ', 230.0000,1,   2,   2,   1,1.00233,  -7.1239,1.10000,0.90000,1.10000,0.90000
  3805,'MIDWAY      ', 230.0000,1,   2,   2,   1,1.03500,  -6.6568,1.10000,0.90000,1.10000,0.90000
  3806,'MORROBAY    ', 230.0000,1,   2,   2,   1,1.01900,  -3.5261,1.10000,0.90000,1.10000,0.90000
  3831,'DIABLO1     ',  20.0000,2,   2,   2,   1,1.04876,   0.7821,1.10000,0.90000,1.10000,0.90000
  3835,'MIDWAY      ',  20.0000,2,   2,   2,   1,1.03528,  -6.5555,1.10000,0.90000,1.10000,0.90000
  3836,'MORROBAY    ',  20.0000,2,   2,   2,   1,1.01896,  -3.3388,1.10000,0.90000,1.10000,0.90000
  3891,'GATES1      ', 500.0000,1,   2,   2,   1,1.05217,  -9.2502,1.10000,0.90000,1.10000,0.90000
  3892,'MIDWAY1     ', 500.0000,1,   2,   2,   1,1.03871,  -3.9080,1.10000,0.90000,1.10000,0.90000
  3893,'MIDWAY2     ', 500.0000,1,   2,   2,   1,1.03351, -13.1513,1.10000,0.90000,1.10000,0.90000
  3894,'MIDWAY3     ', 500.0000,1,   2,   2,   1,1.03851,  -3.8546,1.10000,0.90000,1.10000,0.90000
  3895,'MIDWAY4     ', 500.0000,1,   2,   2,   1,1.03370, -13.1723,1.10000,0.90000,1.10000,0.90000
  3896,'MIDWAY5     ', 500.0000,1,   2,   2,   1,1.03890,  -3.6959,1.10000,0.90000,1.10000,0.90000
  3897,'MIDWAY6     ', 500.0000,1,   2,   2,   1,1.03561, -13.0099,1.10000,0.90000,1.10000,0.90000
  3901,'LOSBANOS    ', 500.0000,1,   2,   2,   1,1.02990,  -6.0140,1.10000,0.90000,1.10000,0.90000
  3902,'MOSSLAND    ', 500.0000,1,   2,   2,   1,1.00000,  -2.2632,1.10000,0.90000,1.10000,0.90000
  3903,'TESLA       ', 500.0000,1,   2,   2,   1,1.03465,  -5.2887,1.10000,0.90000,1.10000,0.90000
  3904,'VACA-DIX    ', 500.0000,1,   2,   2,   1,1.03414,  -5.4622,1.10000,0.90000,1.10000,0.90000
  3905,'TABLE MT    ', 500.0000,1,   2,   2,   1,1.04915,  -6.1484,1.10000,0.90000,1.10000,0.90000
  3906,'ROUND MT    ', 500.0000,1,   2,   2,   1,1.06991,  -5.5014,1.10000,0.90000,1.10000,0.90000
  3907,'BELLOTA     ', 230.0000,1,   2,   2,   1,0.96956, -13.7171,1.10000,0.90000,1.10000,0.90000
  3908,'BRIGHTON    ', 230.0000,1,   2,   2,   1,0.97516, -16.5874,1.10000,0.90000,1.10000,0.90000
  3909,'COLGATE     ', 230.0000,1,   2,   2,   1,0.98747, -17.7611,1.10000,0.90000,1.10000,0.90000
  3910,'CORTINA     ', 230.0000,1,   2,   2,   1,0.97959, -12.9925,1.10000,0.90000,1.10000,0.90000
  3911,'COTWDPGE    ', 230.0000,1,   2,   2,   1,1.04304,  -4.1388,1.10000,0.90000,1.10000,0.90000
  3912,'GLENN       ', 230.0000,1,   2,   2,   1,1.02453, -10.2031,1.10000,0.90000,1.10000,0.90000
  3913,'GOLDHILL    ', 230.0000,1,   2,   2,   1,0.98796, -12.6866,1.10000,0.90000,1.10000,0.90000
  3914,'IGNACIO     ', 230.0000,1,   2,   2,   1,0.99136,  -2.1378,1.10000,0.90000,1.10000,0.90000
  3915,'LAKEVILE    ', 230.0000,1,   2,   2,   1,0.99702,  -3.3855,1.10000,0.90000,1.10000,0.90000
  3916,'LOGAN CR    ', 230.0000,1,   2,   2,   1,1.02219,  -9.9548,1.10000,0.90000,1.10000,0.90000
  3917,'LOSBANOS    ', 230.0000,1,   2,   2,   1,1.01012,  -8.3354,1.10000,0.90000,1.10000,0.90000
  3918,'MOSSLAND    ', 230.0000,1,   2,   2,   1,0.99384,  -6.0267,1.10000,0.90000,1.10000,0.90000
  3919,'PALERMO     ', 230.0000,1,   2,   2,   1,0.99679, -16.6180,1.10000,0.90000,1.10000,0.90000
  3920,'RIO OSO     ', 230.0000,1,   2,   2,   1,0.99025, -16.2913,1.10000,0.90000,1.10000,0.90000
  3921,'ROUND MT    ', 230.0000,1,   2,   2,   1,1.07000,   1.5011,1.10000,0.90000,1.10000,0.90000
  3922,'TABLE MT    ', 230.0000,1,   2,   2,   1,1.01629, -12.7252,1.10000,0.90000,1.10000,0.90000
  3923,'TESLA       ', 230.0000,1,   2,   2,   1,1.01761,  -1.0250,1.10000,0.90000,1.10000,0.90000
  3924,'VACA-DIX    ', 230.0000,1,   2,   2,   1,1.00949,  -5.4562,1.10000,0.90000,1.10000,0.90000
  3925,'COTWDPGE    ', 115.0000,1,   2,   2,   1,1.02989,  -4.0766,1.10000,0.90000,1.10000,0.90000
  3926,'RIO OSO     ', 115.0000,1,   2,   2,   1,0.99786, -19.5525,1.10000,0.90000,1.10000,0.90000
  3931,'ROUND MT    ',  20.0000,2,   2,   2,   1,1.07066,   1.8629,1.10000,0.90000,1.10000,0.90000
  3932,'MOSSLAND    ',  20.0000,2,   2,   2,   1,0.99876,  -1.8746,1.10000,0.90000,1.10000,0.90000
  3933,'TESLA       ',  20.0000,3,   2,   2,   1,1.02000,   0.0000,1.10000,0.90000,1.10000,0.90000
  4001,'MALIN       ', 500.0000,1,   3,  11,   1,1.08000,  -5.9328,1.10000,0.90000,1.10000,0.90000
  4002,'SUMMER L    ', 500.0000,1,   3,  11,   1,1.11410,  -3.7122,1.10000,0.90000,1.10000,0.90000
  4003,'BURNS       ', 500.0000,1,   3,  11,   1,1.12835,   4.1039,1.10000,0.90000,1.10000,0.90000
  4004,'GRIZZLY     ', 500.0000,1,   3,  11,   1,1.10132,  -5.7208,1.10000,0.90000,1.10000,0.90000
  4005,'JOHN DAY    ', 500.0000,1,   3,  11,   1,1.08000,  -5.3425,1.10000,0.90000,1.10000,0.90000
  4006,'BIG EDDY    ', 500.0000,1,   3,  11,   1,1.07594,  -8.9606,1.10000,0.90000,1.10000,0.90000
  4007,'CELILOCA    ', 500.0000,1,   3,  11,   1,1.07595,  -9.1337,1.10000,0.90000,1.10000,0.90000
  4008,'MALIN       ', 345.0000,1,   3,  11,   1,1.08013,  -8.1151,1.10000,0.90000,1.10000,0.90000
  4009,'BIG EDDY    ', 230.0000,1,   3,  11,   1,1.08000, -11.4341,1.10000,0.90000,1.10000,0.90000
  4010,'CELILO      ', 230.0000,1,   3,  11,   1,1.07871, -11.6748,1.10000,0.90000,1.10000,0.90000
  4031,'MALIN       ',  20.0000,2,   3,  11,   1,1.07685,  -5.5496,1.10000,0.90000,1.10000,0.90000
  4035,'JOHN DAY    ',  20.0000,2,   3,  11,   1,1.07767,  -4.7798,1.10000,0.90000,1.10000,0.90000
  4039,'DALLES21    ',  20.0000,2,   3,  13,   1,1.08393, -10.8846,1.10000,0.90000,1.10000,0.90000
  4090,'MALIN1      ', 500.0000,1,   3,  11,   1,1.11068,  -4.0346,1.10000,0.90000,1.10000,0.90000
  4091,'GRIZZLY1    ', 500.0000,1,   3,  11,   1,1.11061,  -4.8922,1.10000,0.90000,1.10000,0.90000
  4092,'GRIZZLY2    ', 500.0000,1,   3,  11,   1,1.09408,  -5.9281,1.10000,0.90000,1.10000,0.90000
  4093,'GRIZZLY3    ', 500.0000,1,   3,  11,   1,1.09230,  -5.9578,1.10000,0.90000,1.10000,0.90000
  4094,'GRIZZLY4    ', 500.0000,1,   3,  11,   1,1.10593,  -5.7326,1.10000,0.90000,1.10000,0.90000
  4095,'GRIZZLY5    ', 500.0000,1,   3,  11,   1,1.09241,  -5.9401,1.10000,0.90000,1.10000,0.90000
  4096,'GRIZZLY6    ', 500.0000,1,   3,  11,   1,1.09042,  -5.9721,1.10000,0.90000,1.10000,0.90000
  4097,'GRIZZLY7    ', 500.0000,1,   3,  11,   1,1.10568,  -5.7303,1.10000,0.90000,1.10000,0.90000
  4101,'COULEE      ', 500.0000,1,   3,  13,   1,1.12800,  11.2675,1.10000,0.90000,1.10000,0.90000
  4102,'HANFORD     ', 500.0000,1,   3,  13,   1,1.09600,   3.9997,1.10000,0.90000,1.10000,0.90000
  4103,'BELL        ', 500.0000,1,   3,  13,   1,1.08083,  -3.7392,1.10000,0.90000,1.10000,0.90000
  4104,'BELL        ', 230.0000,1,   3,  13,   1,1.05179, -14.7065,1.10000,0.90000,1.10000,0.90000
  4131,'COULEE      ',  20.0000,2,   3,  13,   1,1.13099,  13.1595,1.10000,0.90000,1.10000,0.90000
  4132,'HANFORD     ',  20.0000,2,   3,  13,   1,1.09651,   5.6353,1.10000,0.90000,1.10000,0.90000
  4201,'NORTH       ', 500.0000,1,   3,  13,   1,1.12000,   4.0883,1.10000,0.90000,1.10000,0.90000
  4202,'WCASCADE    ', 500.0000,1,   3,  13,   1,1.06000,  -8.2490,1.10000,0.90000,1.10000,0.90000
  4203,'WILLAMET    ', 500.0000,1,   3,  13,   1,1.02932, -11.4988,1.10000,0.90000,1.10000,0.90000
  4204,'MERIDIAN    ', 500.0000,1,   3,  13,   1,1.06186,  -7.7302,1.10000,0.90000,1.10000,0.90000
  4231,'NORTH G3    ',  20.0000,2,   3,  13,   1,1.12632,   5.0125,1.10000,0.90000,1.10000,0.90000
  4232,'WCASCADE    ',  20.0000,2,   3,  13,   1,1.05994,  -8.0228,1.10000,0.90000,1.10000,0.90000
  5001,'CANADA      ', 500.0000,1,   3,   4,   1,1.05000,  -5.7602,1.10000,0.90000,1.10000,0.90000
  5002,'CANALB      ', 500.0000,1,   3,   1,   1,1.05500,  -6.9724,1.10000,0.90000,1.10000,0.90000
  5003,'CA230TO     ', 230.0000,1,   3,   1,   1,1.05368, -10.4490,1.10000,0.90000,1.10000,0.90000
  5004,'CA230       ', 230.0000,1,   3,   4,   1,1.08678, -12.6232,1.10000,0.90000,1.10000,0.90000
  5031,'CANAD G1    ',  20.0000,2,   3,   4,   1,1.05458,  -4.0013,1.10000,0.90000,1.10000,0.90000
  5032,'CMAIN GM    ',  20.0000,2,   3,   1,   1,1.06140,  -4.5562,1.10000,0.90000,1.10000,0.90000
  6101,'MIDPOINT    ', 500.0000,1,   3,   6,   1,1.06620,  13.9305,1.10000,0.90000,1.10000,0.90000
  6102,'MIDPOINT    ', 345.0000,1,   3,   6,   1,1.03000,  16.7065,1.10000,0.90000,1.10000,0.90000
  6103,'BORAH       ', 345.0000,1,   3,   6,   1,1.01551,  14.8856,1.10000,0.90000,1.10000,0.90000
...
0 / END OF BUS DATA, BEGIN LOAD DATA
@!     I,'ID',STAT,AREA,ZONE,     PL,        QL,        IP,        IQ,        YP,        YQ, OWNER,SCALE,INTRPT,  DGENP,     DGENQ, DGENF
    1002,'1 ',1,   1,   3,   226.840,  -600.000,     0.000,     0.000,     0.000,     0.000,   1,1,0,     0.000,     0.000,   0,/* [                                ] */
    1003,'1 ',1,   1,  10,  2153.320,   366.850,     0.000,     0.000,     0.000,     0.000,   1,1,0,     0.000,     0.000,   0,/* [                                ] */
    1004,'1 ',1,   1,  10,  1037.950,     5.520,     0.000,     0.000,     0.000,     0.000,   1,1,0,     0.000,     0.000,   0,/* [                                ] */
    1101,'1 ',1,   1,   3,  4527.370,  -137.040,     0.000,     0.000,     0.000,     0.000,   1,1,0,     0.000,     0.000,   0,/* [                                ] */
    1102,'1 ',1,   1,   3,   178.910,    23.650,     0.000,     0.000,     0.000,     0.000,   1,1,0,     0.000,     0.000,   0,/* [                                ] */
    1201,'1 ',1,   1,   3,   168.050,    -2.040,     0.000,     0.000,     0.000,     0.000,   1,1,0,     0.000,     0.000,   0,/* [                                ] */
    1202,'1 ',1,   1,   3,   875.610,   287.130,     0.000,     0.000,     0.000,     0.000,   1,1,0,     0.000,     0.000,   0,/* [                                ] */
    1301,'1 ',1,   1,   3,  2704.780,   352.830,     0.000,     0.000,     0.000,     0.000,   1,1,0,     0.000,     0.000,   0,/* [                                ] */
    1302,'1 ',1,   1,   9,    17.510,     2.290,     0.000,     0.000,     0.000,     0.000,   1,1,0,     0.000,     0.000,   0,/* [                                ] */
    1303,'1 ',1,   1,   9,  6235.140,   813.350,     0.000,     0.000,     0.000,     0.000,   1,1,0,     0.000,     0.000,   0,/* [                                ] */
    1401,'1 ',1,   1,   3,  6535.540,  1524.590,     0.000,     0.000,     0.000,     0.000,   1,1,0,     0.000,     0.000,   0,/* [                                ] */
    1402,'1 ',1,   1,   3,  5373.330,  -601.660,     0.000,     0.000,     0.000,     0.000,   1,1,0,     0.000,     0.000,   0,/* [                                ] */
    2000,'1 ',1,   4,   7,  2207.190,   287.920,     0.000,     0.000,     0.000,     0.000,   1,1,0,     0.000,     0.000,   0,/* [                                ] */
    2100,'1 ',1,   2,   2,   253.040,    49.350,     0.000,     0.000,     0.000,     0.000,   1,1,0,     0.000,     0.000,   0,/* [                                ] */
    2202,'1 ',1,   2,   2,  1400.760,   244.990,     0.000,     0.000,     0.000,     0.000,   1,1,0,     0.000,     0.000,   0,/* [                                ] */
    2203,'1 ',1,   2,   2,  1537.700,   250.450,     0.000,     0.000,     0.000,     0.000,   1,1,0,     0.000,     0.000,   0,/* [                                ] */
    2400,'1 ',1,   2,   2,   763.510,    69.830,     0.000,     0.000,     0.000,     0.000,   1,1,0,     0.000,     0.000,   0,/* [                                ] */
    2401,'1 ',1,   2,   2,   794.390,    94.750,     0.000,     0.000,     0.000,     0.000,   1,1,0,     0.000,     0.000,   0,/* [                                ] */
    2402,'1 ',1,   2,   2,   974.150,    74.110,     0.000,     0.000,     0.000,     0.000,   1,1,0,     0.000,     0.000,   0,/* [                                ] */
    2403,'1 ',1,   2,   2,   949.960,    35.050,     0.000,     0.000,     0.000,     0.000,   1,1,0,     0.000,     0.000,   0,/* [                                ] */
    2405,'1 ',1,   2,   2,   742.750,    20.640,     0.000,     0.000,     0.000,     0.000,   1,1,0,     0.000,     0.000,   0,/* [                                ] */
    2406,'1 ',1,   2,   2,   664.340,   -36.750,     0.000,     0.000,     0.000,     0.000,   1,1,0,     0.000,     0.000,   0,/* [                                ] */
    2407,'1 ',1,   2,   2,  1569.980,   -33.330,     0.000,     0.000,     0.000,     0.000,   1,1,0,     0.000,     0.000,   0,/* [                                ] */
    2408,'1 ',1,   2,   2,  1568.950,   -65.360,     0.000,     0.000,     0.000,     0.000,   1,1,0,     0.000,     0.000,   0,/* [                                ] */
    2409,'1 ',1,   2,   2,  1441.600,   -78.030,     0.000,     0.000,     0.000,     0.000,   1,1,0,     0.000,     0.000,   0,/* [                                ] */
    2410,'1 ',1,   2,   2,  1421.480,    52.540,     0.000,     0.000,     0.000,     0.000,   1,1,0,     0.000,     0.000,   0,/* [                                ] */
    2411,'1 ',1,   2,   2,   978.970,    68.370,     0.000,     0.000,     0.000,     0.000,   1,1,0,     0.000,     0.000,   0,/* [                                ] */
    2502,'1 ',1,   2,   2,  2136.280,   -83.030,     0.000,     0.000,     0.000,     0.000,   1,1,0,     0.000,     0.000,   0,/* [                                ] */
    2503,'1 ',1,   2,   2,  1661.330,   181.790,     0.000,     0.000,     0.000,     0.000,   1,1,0,     0.000,     0.000,   0,/* [                                ] */
    2600,'1 ',1,   2,   2, -1680.780,     0.001,     0.000,     0.000,     0.000,     0.000,   1,1,0,     0.000,     0.000,   0,/* [                                ] */
    2602,'1 ',1,   2,   2,    89.500,    11.700,     0.000,     0.000,     0.000,     0.000,   1,1,0,     0.000,     0.000,   0,/* [                                ] */
    2604,'1 ',1,   2,   2,  1845.700,     0.000,     0.000,     0.000,     0.000,     0.000,   1,1,0,     0.000,     0.000,   0,/* [                                ] */
    2608,'1 ',1,   2,   2,    89.350,    11.660,     0.000,     0.000,     0.000,     0.000,   1,1,0,     0.000,     0.000,   0,/* [                                ] */
    2609,'1 ',1,   2,   2,   120.750,    24.180,     0.000,     0.000,     0.000,     0.000,   1,1,0,     0.000,     0.000,   0,/* [                                ] */
    2610,'1 ',1,   2,   2,    89.350,    11.660,     0.000,     0.000,     0.000,     0.000,   1,1,0,     0.000,     0.000,   0,/* [                                ] */
    2611,'1 ',1,   2,   2,    89.350,    11.660,     0.000,     0.000,     0.000,     0.000,   1,1,0,     0.000,     0.000,   0,/* [                                ] */
    2612,'1 ',1,   2,   2,   108.110,    22.340,     0.000,     0.000,     0.000,     0.000,   1,1,0,     0.000,     0.000,   0,/* [                                ] */
    2613,'1 ',1,   2,   2,   286.220,    58.200,     0.000,     0.000,     0.000,     0.000,   1,1,0,     0.000,     0.000,   0,/* [                                ] */
    2614,'1 ',1,   2,   2,   123.420,    25.060,     0.000,     0.000,     0.000,     0.000,   1,1,0,     0.000,     0.000,   0,/* [                                ] */
    2615,'1 ',1,   2,   2,   722.530,   118.280,     0.000,     0.000,     0.000,     0.000,   1,1,0,     0.000,     0.000,   0,/* [                                ] */
    2616,'1 ',1,   2,   2,   104.640,    21.490,     0.000,     0.000,     0.000,     0.000,   1,1,0,     0.000,     0.000,   0,/* [                                ] */
    2617,'1 ',1,   2,   2,   108.220,    22.380,     0.000,     0.000,     0.000,     0.000,   1,1,0,     0.000,     0.000,   0,/* [                                ] */
    2618,'1 ',1,   2,   2,   793.430,    -5.540,     0.000,     0.000,     0.000,     0.000,   1,1,0,     0.000,     0.000,   0,/* [                                ] */
    2619,'1 ',1,   2,   2, -2497.430,     0.000,     0.000,     0.000,     0.000,     0.000,   1,1,0,     0.000,     0.000,   0,/* [                                ] */
    2620,'1 ',1,   2,   2,   183.440,    15.740,     0.000,     0.000,     0.000,     0.000,   1,1,0,     0.000,     0.000,   0,/* [                                ] */
    2621,'1 ',1,   2,   2,   212.090,   -56.550,     0.000,     0.000,     0.000,     0.000,   1,1,0,     0.000,     0.000,   0,/* [                                ] */
    3101,'1 ',1,   2,   2,   307.720,    47.720,     0.000,     0.000,     0.000,     0.000,   1,1,0,     0.000,     0.000,   0,/* [                                ] */
    3102,'1 ',1,   2,   2,   143.690,    22.490,     0.000,     0.000,     0.000,     0.000,   1,1,0,     0.000,     0.000,   0,/* [                                ] */
    3103,'1 ',1,   2,   2,   377.650,    53.800,     0.000,     0.000,     0.000,     0.000,   1,1,0,     0.000,     0.000,   0,/* [                                ] */
    3104,'1 ',1,   2,   2,   279.490,    36.250,     0.000,     0.000,     0.000,     0.000,   1,1,0,     0.000,     0.000,   0,/* [                                ] */
    3105,'1 ',1,   2,   2,   215.370,    44.180,     0.000,     0.000,     0.000,     0.000,   1,1,0,     0.000,     0.000,   0,/* [                                ] */
    3201,'1 ',1,   2,   2,   418.680,    89.100,     0.000,     0.000,     0.000,     0.000,   1,1,0,     0.000,     0.000,   0,/* [                                ] */
    3202,'1 ',1,   2,   2,   530.160,    75.870,     0.000,     0.000,     0.000,     0.000,   1,1,0,     0.000,     0.000,   0,/* [                                ] */
    3203,'1 ',1,   2,   2,   592.870,   143.340,     0.000,     0.000,     0.000,     0.000,   1,1,0,     0.000,     0.000,   0,/* [                                ] */
    3204,'1 ',1,   2,   2,   601.910,    85.780,     0.000,     0.000,     0.000,     0.000,   1,1,0,     0.000,     0.000,   0,/* [                                ] */
    3205,'1 ',1,   2,   2,   492.600,    70.330,     0.000,     0.000,     0.000,     0.000,   1,1,0,     0.000,     0.000,   0,/* [                                ] */
    3302,'1 ',1,   2,   2,   311.410,    77.520,     0.000,     0.000,     0.000,     0.000,   1,1,0,     0.000,     0.000,   0,/* [                                ] */
    3303,'1 ',1,   2,   2,   562.870,   135.640,     0.000,     0.000,     0.000,     0.000,   1,1,0,     0.000,     0.000,   0,/* [                                ] */
    3304,'1 ',1,   2,   2,   480.850,   110.680,     0.000,     0.000,     0.000,     0.000,   1,1,0,     0.000,     0.000,   0,/* [                                ] */
    3305,'1 ',1,   2,   2,   387.720,    55.220,     0.000,     0.000,     0.000,     0.000,   1,1,0,     0.000,     0.000,   0,/* [                                ] */
    3401,'1 ',1,   2,   2,   505.820,   124.220,     0.000,     0.000,     0.000,     0.000,   1,1,0,     0.000,     0.000,   0,/* [                                ] */
    3403,'1 ',1,   2,   2,   464.370,    66.220,     0.000,     0.000,     0.000,     0.000,   1,1,0,     0.000,     0.000,   0,/* [                                ] */
    3404,'1 ',1,   2,   2,   395.710,    56.180,     0.000,     0.000,     0.000,     0.000,   1,1,0,     0.000,     0.000,   0,/* [                                ] */
    3405,'1 ',1,   2,   2,   406.990,    58.200,     0.000,     0.000,     0.000,     0.000,   1,1,0,     0.000,     0.000,   0,/* [                                ] */
    3501,'1 ',1,   2,   2,   562.510,    80.110,     0.000,     0.000,     0.000,     0.000,   1,1,0,     0.000,     0.000,   0,/* [                                ] */
    3601,'1 ',1,   2,   2,    94.370,    13.360,     0.000,     0.000,     0.000,     0.000,   1,1,0,     0.000,     0.000,   0,/* [                                ] */
    3701,'1 ',1,   1,   9,   319.130,    16.060,     0.000,     0.000,     0.000,     0.000,   1,1,0,     0.000,     0.000,   0,/* [                                ] */
    3801,'1 ',1,   2,   2,   172.100,    42.670,     0.000,     0.000,     0.000,     0.000,   1,1,0,     0.000,     0.000,   0,/* [                                ] */
    3804,'1 ',1,   2,   2,   202.290,    50.290,     0.000,     0.000,     0.000,     0.000,   1,1,0,     0.000,     0.000,   0,/* [                                ] */
    3805,'1 ',1,   2,   2,   449.450,   146.800,     0.000,     0.000,     0.000,     0.000,   1,1,0,     0.000,     0.000,   0,/* [                                ] */
    3806,'1 ',1,   2,   2,   260.630,    37.230,     0.000,     0.000,     0.000,     0.000,   1,1,0,     0.000,     0.000,   0,/* [                                ] */
    3902,'1 ',1,   2,   2,   137.690,    34.420,     0.000,     0.000,     0.000,     0.000,   1,1,0,     0.000,     0.000,   0,/* [                                ] */
    3903,'1 ',1,   2,   2,   197.350,    28.810,     0.000,     0.000,     0.000,     0.000,   1,1,0,     0.000,     0.000,   0,/* [                                ] */
    3907,'1 ',1,   2,   2,   417.280,    57.330,     0.000,     0.000,     0.000,     0.000,   1,1,0,     0.000,     0.000,   0,/* [                                ] */
    3908,'1 ',1,   2,   2,   182.230,    22.740,     0.000,     0.000,     0.000,     0.000,   1,1,0,     0.000,     0.000,   0,/* [                                ] */
    3909,'1 ',1,   2,   2,   157.390,    37.470,     0.000,     0.000,     0.000,     0.000,   1,1,0,     0.000,     0.000,   0,/* [                                ] */
    3910,'1 ',1,   2,   2,   223.770,    32.760,     0.000,     0.000,     0.000,     0.000,   1,1,0,     0.000,     0.000,   0,/* [                                ] */
    3911,'1 ',1,   2,   2,   213.160,    43.760,     0.000,     0.000,     0.000,     0.000,   1,1,0,     0.000,     0.000,   0,/* [                                ] */
    3912,'1 ',1,   2,   2,   160.770,    -0.600,     0.000,     0.000,     0.000,     0.000,   1,1,0,     0.000,     0.000,   0,/* [                                ] */
    3913,'1 ',1,   2,   2,   297.380,    39.300,     0.000,     0.000,     0.000,     0.000,   1,1,0,     0.000,     0.000,   0,/* [                                ] */
    3914,'1 ',1,   2,   2,   205.450,    47.510,     0.000,     0.000,     0.000,     0.000,   1,1,0,     0.000,     0.000,   0,/* [                                ] */
    3915,'1 ',1,   2,   2,   230.160,    48.550,     0.000,     0.000,     0.000,     0.000,   1,1,0,     0.000,     0.000,   0,/* [                                ] */
    3916,'1 ',1,   2,   2,   142.870,     0.000,     0.000,     0.000,     0.000,     0.000,   1,1,0,     0.000,     0.000,   0,/* [                                ] */
    3917,'1 ',1,   2,   2,   216.330,    40.320,     0.000,     0.000,     0.000,     0.000,   1,1,0,     0.000,     0.000,   0,/* [                                ] */
    3918,'1 ',1,   2,   2,   287.760,    68.110,     0.000,     0.000,     0.000,     0.000,   1,1,0,     0.000,     0.000,   0,/* [                                ] */
    3919,'1 ',1,   2,   2,   171.120,    23.030,     0.000,     0.000,     0.000,     0.000,   1,1,0,     0.000,     0.000,   0,/* [                                ] */
    3920,'1 ',1,   2,   2,   157.280,    21.870,     0.000,     0.000,     0.000,     0.000,   1,1,0,     0.000,     0.000,   0,/* [                                ] */
    3921,'1 ',1,   2,   2,   135.800,    31.340,     0.000,     0.000,     0.000,     0.000,   1,1,0,     0.000,     0.000,   0,/* [                                ] */
    3922,'1 ',1,   2,   2,   235.590,    30.640,     0.000,     0.000,     0.000,     0.000,   1,1,0,     0.000,     0.000,   0,/* [                                ] */
    3923,'1 ',1,   2,   2,   359.680,    60.490,     0.000,     0.000,     0.000,     0.000,   1,1,0,     0.000,     0.000,   0,/* [                                ] */
    3924,'1 ',1,   2,   2,   303.000,    43.520,     0.000,     0.000,     0.000,     0.000,   1,1,0,     0.000,     0.000,   0,/* [                                ] */
    3926,'1 ',1,   2,   2,   243.690,    15.390,     0.000,     0.000,     0.000,     0.000,   1,1,0,     0.000,     0.000,   0,/* [                                ] */
    4002,'1 ',1,   3,  11,   172.130,    22.910,     0.000,     0.000,     0.000,     0.000,   1,1,0,     0.000,     0.000,   0,/* [                                ] */
    4004,'1 ',1,   3,  11,   273.330,    36.050,     0.000,     0.000,     0.000,     0.000,   1,1,0,     0.000,     0.000,   0,/* [                                ] */
    4005,'1 ',1,   3,  11,   480.110,   157.420,     0.000,     0.000,     0.000,     0.000,   1,1,0,     0.000,     0.000,   0,/* [                                ] */
    4008,'1 ',1,   3,  11,   286.350,    37.510,     0.000,     0.000,     0.000,     0.000,   1,1,0,     0.000,     0.000,   0,/* [                                ] */
    4009,'1 ',1,   3,  11,  2208.740,   431.400,     0.000,     0.000,     0.000,     0.000,   1,1,0,     0.000,     0.000,   0,/* [                                ] */
    4010,'1 ',1,   3,  11,  3133.110,     0.000,     0.000,     0.000,     0.000,     0.000,   1,1,0,     0.000,     0.000,   0,/* [                                ] */
    4101,'1 ',1,   3,  13,   995.030,   129.780,     0.000,     0.000,     0.000,     0.000,   1,1,0,     0.000,     0.000,   0,/* [                                ] */
    4102,'1 ',1,   3,  13,   480.650,    68.660,     0.000,     0.000,     0.000,     0.000,   1,1,0,     0.000,     0.000,   0,/* [                                ] */
    4103,'1 ',1,   3,  13,    11.680,     1.520,     0.000,     0.000,     0.000,     0.000,   1,1,0,     0.000,     0.000,   0,/* [                                ] */
    4104,'1 ',1,   3,  13,  2550.580,   335.720,     0.000,     0.000,     0.000,     0.000,   1,1,0,     0.000,     0.000,   0,/* [                                ] */
    4201,'1 ',1,   3,  13,  5762.660,   461.010,     0.000,     0.000,     0.000,     0.000,   1,1,0,     0.000,     0.000,   0,/* [                                ] */
    4202,'1 ',1,   3,  13,  4558.240,   594.630,     0.000,     0.000,     0.000,     0.000,   1,1,0,     0.000,     0.000,   0,/* [                                ] */
    4203,'1 ',1,   3,  13,  4434.750,   585.800,     0.000,     0.000,     0.000,     0.000,   1,1,0,     0.000,     0.000,   0,/* [                                ] */
    4204,'1 ',1,   3,  13,  1008.370,   130.740,     0.000,     0.000,     0.000,     0.000,   1,1,0,     0.000,     0.000,   0,/* [                                ] */
    5001,'1 ',1,   3,   4,  7574.050,  1721.380,     0.000,     0.000,     0.000,     0.000,   1,1,0,     0.000,     0.000,   0,/* [                                ] */
    5002,'1 ',1,   3,   1,  9003.980,  1174.360,     0.000,     0.000,     0.000,     0.000,   1,1,0,     0.000,     0.000,   0,/* [                                ] */
    5003,'1 ',1,   3,   1,   620.890,    81.740,     0.000,     0.000,     0.000,     0.000,   1,1,0,     0.000,     0.000,   0,/* [                                ] */
    6102,'1 ',1,   3,   6,  1053.140,  -345.280,     0.000,     0.000,     0.000,     0.000,   1,1,0,     0.000,     0.000,   0,/* [                                ] */
    6103,'1 ',1,   3,   6,   392.450,    51.260,     0.000,     0.000,     0.000,     0.000,   1,1,0,     0.000,     0.000,   0,/* [                                ] */
    6104,'1 ',1,   3,   6,  1700.080,   222.420,     0.000,     0.000,     0.000,     0.000,   1,1,0,     0.000,     0.000,   0,/* [                                ] */
    6201,'1 ',1,   3,   8,   205.820,    26.860,     0.000,     0.000,     0.000,     0.000,   1,1,0,     0.000,     0.000,   0,/* [                                ] */
    6202,'1 ',1,   3,   8,    89.030,    13.620,     0.000,     0.000,     0.000,     0.000,   1,1,0,     0.000,     0.000,   0,/* [                                ] */
    6203,'1 ',1,   3,   8,   612.730,   145.270,     0.000,     0.000,     0.000,     0.000,   1,1,0,     0.000,     0.000,   0,/* [                                ] */
    6204,'1 ',1,   3,   8,   702.080,   157.710,     0.000,     0.000,     0.000,     0.000,   1,1,0,     0.000,     0.000,   0,/* [                                ] */
    6205,'1 ',1,   3,   8,   489.280,    86.340,     0.000,     0.000,     0.000,     0.000,   1,1,0,     0.000,     0.000,   0,/* [                                ] */
    6301,'1 ',1,   3,  14,   517.660,    67.700,     0.000,     0.000,     0.000,     0.000,   1,1,0,     0.000,     0.000,   0,/* [                                ] */
    6302,'1 ',1,   3,  14,   592.500,    77.400,     0.000,     0.000,     0.000,     0.000,   1,1,0,     0.000,     0.000,   0,/* [                                ] */
    6303,'1 ',1,   3,  14,   746.600,    97.400,     0.000,     0.000,     0.000,     0.000,   1,1,0,     0.000,     0.000,   0,/* [                                ] */
    6305,'1 ',1,   3,  14,    60.230,    19.750,     0.000,     0.000,     0.000,     0.000,   1,1,0,     0.000,     0.000,   0,/* [                                ] */
    6401,'1 ',1,   1,   9,  1746.220,   237.840,     0.000,     0.000,     0.000,     0.000,   1,1,0,     0.000,     0.000,   0,/* [                                ] */
    6402,'1 ',1,   1,   9,   280.570,    37.700,     0.000,     0.000,     0.000,     0.000,   1,1,0,     0.000,     0.000,   0,/* [                                ] */
    6403,'1 ',1,   1,   9,     2.200,     0.270,     0.000,     0.000,     0.000,     0.000,   1,1,0,     0.000,     0.000,   0,/* [                                ] */
    6404,'1 ',1,   1,   9,    29.750,     3.980,     0.000,     0.000,     0.000,     0.000,   1,1,0,     0.000,     0.000,   0,/* [                                ] */
    6501,'1 ',1,   3,  12,   197.330,    65.310,     0.000,     0.000,     0.000,     0.000,   1,1,0,     0.000,     0.000,   0,/* [                                ] */
    6502,'1 ',1,   3,  12,  1570.440,   283.000,     0.000,     0.000,     0.000,     0.000,   1,1,0,     0.000,     0.000,   0,/* [                                ] */
    6503,'1 ',1,   3,  12,   441.150,   144.600,     0.000,     0.000,     0.000,     0.000,   1,1,0,     0.000,     0.000,   0,/* [                                ] */
    6504,'1 ',1,   3,  12,   300.410,    39.630,     0.000,     0.000,     0.000,     0.000,   1,1,0,     0.000,     0.000,   0,/* [                                ] */
    6505,'1 ',1,   3,  12,     7.020,     2.380,     0.000,     0.000,     0.000,     0.000,   1,1,0,     0.000,     0.000,   0,/* [                                ] */
    6507,'1 ',1,   3,  12,   554.920,   -64.610,     0.000,     0.000,     0.000,     0.000,   1,1,0,     0.000,     0.000,   0,/* [                                ] */
    6508,'1 ',1,   3,  12,   132.630,    43.730,     0.000,     0.000,     0.000,     0.000,   1,1,0,     0.000,     0.000,   0,/* [                                ] */
    6509,'1 ',1,   3,  12,     8.670,     2.870,     0.000,     0.000,     0.000,     0.000,   1,1,0,     0.000,     0.000,   0,/* [                                ] */
    6510,'1 ',1,   3,  12,  1949.220,  -109.330,     0.000,     0.000,     0.000,     0.000,   1,1,0,     0.000,     0.000,   0,/* [                                ] */
    7001,'1 ',1,   3,   5,  7000.920,   772.350,     0.000,     0.000,     0.000,     0.000,   1,1,0,     0.000,     0.000,   0,/* [                                ] */
    7002,'1 ',1,   3,   5,  2554.830,  -138.070,     0.000,     0.000,     0.000,     0.000,   1,1,0,     0.000,     0.000,   0,/* [                                ] */
    8003,'1 ',1,   2,   2,   587.400,    76.630,     0.000,     0.000,     0.000,     0.000,   1,1,0,     0.000,     0.000,   0,/* [                                ] */
    8004,'1 ',1,   2,   2,  3409.100,   444.700,     0.000,     0.000,     0.000,     0.000,   1,1,0,     0.000,     0.000,   0,/* [                                ] */
    8005,'1 ',1,   2,   2,  1216.870,   162.460,     0.000,     0.000,     0.000,     0.000,   1,1,0,     0.000,     0.000,   0,/* [                                ] */
0 / END OF LOAD DATA, BEGIN FIXED SHUNT DATA
@!   I,'ID',STATUS,  GL,        BL
  4001,'1 ',  1,0.0,600.00
  6104,'1 ',  1,0.0,400.00
  6304,'1 ',  1,0.0,600.00
  6401,'1 ',  1,0.0,600.00
  7001,'1 ',  1,0.0,200.00
0 / END OF FIXED SHUNT DATA, BEGIN GENERATOR DATA
@!   I,'ID',      PG,        QG,        QT,        QB,     VS,    IREG,     MBASE,     ZR,         ZX,         RT,         XT,     GTAP,STAT, RMPCT,      PT,        PB,    O1,    F1,  O2,    F2,  O3,    F3,  O4,    F4,WMOD, WPF,NREG
  1032,'C ',   712.000,    -3.332,   200.000,  -200.000,1.01400,  1002,   873.000, 0.00000E+0, 2.00000E-1, 0.00000E+0, 0.00000E+0,1.00000,1,  100.0,   873.000,     0.000,   1,1.0000
  1032,'G ',   856.000,    -3.332,   357.000,  -357.000,1.01400,  1002,  1050.000, 0.00000E+0, 2.00000E-1, 0.00000E+0, 0.00000E+0,1.00000,1,  100.0,  1050.000,     0.000,   1,1.0000
  1032,'S ',   520.000,    -3.332,   360.000,  -360.000,1.01400,  1002,   638.000, 0.00000E+0, 2.00000E-1, 0.00000E+0, 0.00000E+0,1.00000,1,  100.0,   638.000,     0.000,   1,1.0000,   0,   1.0,   0,   1.0,   0,   1.0, 1, 1.0000
  1034,'C ',  1847.000,   262.628,   500.000,  -500.000,1.03000,  1004,  2100.000, 0.00000E+0, 2.00000E-1, 0.00000E+0, 0.00000E+0,1.00000,1,  100.0,  1944.000,     0.000,   1,1.0000
  1034,'G ',  2565.000,   262.628,   918.000,  -918.000,1.03000,  1004,  2900.000, 0.00000E+0, 2.00000E-1, 0.00000E+0, 0.00000E+0,1.00000,1,  100.0,  2700.000,     0.000,   1,1.0000
  1034,'W ',  1598.000,   262.628,   800.000,  -800.000,1.03000,  1004,  1682.000, 0.00000E+0, 2.00000E-1, 0.00000E+0, 0.00000E+0,1.00000,1,  100.0,  1682.000,     0.000,   1,1.0000,   0,   1.0,   0,   1.0,   0,   1.0, 1, 1.0000
  1131,'C ',   530.000,   -46.791,   308.000,  -308.000,1.01000,  1101,  1268.000, 0.00000E+0, 2.00000E-1, 0.00000E+0, 0.00000E+0,1.00000,1,  100.0,  1268.000,     0.000,   1,1.0000
  1131,'G ',  2064.000,   -46.791,  1916.000, -1916.000,1.01000,  1101,  4934.000, 0.00000E+0, 2.00000E-1, 0.00000E+0, 0.00000E+0,1.00000,1,  100.0,  4934.000,     0.000,   1,1.0000
  1232,'C ',  2728.000,     0.604,  1208.000, -1208.000,1.08000,  1202,  4977.000, 0.00000E+0, 2.00000E-1, 0.00000E+0, 0.00000E+0,1.00000,1,  100.0,  4977.000,     0.000,   1,1.0000
  1232,'H ',   657.000,     0.604,   628.000,  -628.000,1.08000,  1202,  1199.000, 0.00000E+0, 2.00000E-1, 0.00000E+0, 0.00000E+0,1.00000,1,  100.0,  1199.000,     0.000,   1,1.0000
  1331,'G ',  1986.000,    24.690,   841.000,  -841.000,1.04500,  1301,  2167.000, 0.00000E+0, 2.00000E-1, 0.00000E+0, 0.00000E+0,1.00000,1,  100.0,  2167.000,     0.000,   1,1.0000
  1331,'H ',  2133.000,    24.690,  1219.000, -1219.000,1.04500,  1301,  2328.000, 0.00000E+0, 2.00000E-1, 0.00000E+0, 0.00000E+0,1.00000,1,  100.0,  2328.000,     0.000,   1,1.0000
  1333,'C ',   218.000,   217.320,   303.000,  -303.000,1.00500,  1303,   418.000, 0.00000E+0, 2.00000E-1, 0.00000E+0, 0.00000E+0,1.00000,1,  100.0,   418.000,     0.000,   1,1.0000
  1333,'G ',  3662.000,   217.320,  2746.000, -2746.000,1.00500,  1303,  7011.000, 0.00000E+0, 2.00000E-1, 0.00000E+0, 0.00000E+0,1.00000,1,  100.0,  7011.000,     0.000,   1,1.0000
  1333,'S ',  1266.000,   217.320,  1300.000, -1300.000,1.00500,  1303,  2423.000, 0.00000E+0, 2.00000E-1, 0.00000E+0, 0.00000E+0,1.00000,1,  100.0,  2423.000,     0.000,   1,1.0000,   0,   1.0,   0,   1.0,   0,   1.0, 1, 1.0000
  1431,'G ',  5129.000,   409.166,  3559.000, -3559.000,1.03500,  1401,  9170.000, 0.00000E+0, 2.00000E-1, 0.00000E+0, 0.00000E+0,1.00000,1,  100.0,  9170.000,     0.000,   1,1.0000
  1431,'N ',  2355.000,   409.166,  2057.000, -2057.000,1.03500,  1401,  4210.000, 0.00000E+0, 2.00000E-1, 0.00000E+0, 0.00000E+0,1.00000,1,  100.0,  4210.000,     0.000,   1,1.0000
  1431,'S ',  1353.000,   409.166,  1000.000, -1000.000,1.03500,  1401,  2419.000, 0.00000E+0, 2.00000E-1, 0.00000E+0, 0.00000E+0,1.00000,1,  100.0,  2419.000,     0.000,   1,1.0000,   0,   1.0,   0,   1.0,   0,   1.0, 1, 1.0000
  2030,'E ',   605.000,   142.477,   350.000,  -350.000,1.00000,  2000,   699.000, 0.00000E+0, 2.00000E-1, 0.00000E+0, 0.00000E+0,1.00000,1,  100.0,   699.000,     0.000,   1,1.0000
  2030,'G ',  1853.000,   142.477,  1070.000, -1070.000,1.00000,  2000,  2140.000, 0.00000E+0, 2.00000E-1, 0.00000E+0, 0.00000E+0,1.00000,1,  100.0,  2140.000,     0.000,   1,1.0000
  2130,'E ',   573.000,    28.722,   254.000,  -254.000,1.03500,  2100,   831.000, 0.00000E+0, 2.00000E-1, 0.00000E+0, 0.00000E+0,1.00000,1,  100.0,   831.000,     0.000,   1,1.0000
  2130,'G ',   404.000,    28.722,   200.000,  -200.000,1.03500,  2100,   586.000, 0.00000E+0, 2.00000E-1, 0.00000E+0, 0.00000E+0,1.00000,1,  100.0,   586.000,     0.000,   1,1.0000
  2130,'H ',   273.000,    28.722,   250.000,  -250.000,1.03500,  2100,   396.000, 0.00000E+0, 2.00000E-1, 0.00000E+0, 0.00000E+0,1.00000,1,  100.0,   396.000,     0.000,   1,1.0000
  2130,'S ',    79.000,    28.722,    86.000,   -86.000,1.03500,  2100,   115.000, 0.00000E+0, 2.00000E-1, 0.00000E+0, 0.00000E+0,1.00000,1,  100.0,   115.000,     0.000,   1,1.0000,   0,   1.0,   0,   1.0,   0,   1.0, 1, 1.0000
  2233,'DG',   285.000,   125.466,   304.000,  -118.000,1.00500,  2203,  1035.000, 0.00000E+0, 2.00000E-1, 0.00000E+0, 0.00000E+0,1.00000,1,  100.0,  1035.000,     0.000,   1,1.0000
  2233,'EG',   506.000,   125.466,   611.000,  -181.000,1.00500,  2203,  1837.000, 0.00000E+0, 2.00000E-1, 0.00000E+0, 0.00000E+0,1.00000,1,  100.0,  1837.000,     0.000,   1,1.0000
  2233,'TG',   202.000,   125.466,   206.000,  -155.000,1.00500,  2203,   733.000, 0.00000E+0, 2.00000E-1, 0.00000E+0, 0.00000E+0,1.00000,1,  100.0,   733.000,     0.000,   1,1.0000
  2332,'S ',   878.000,    42.001,   590.000,  -364.000,1.03500,  2302,  1333.000, 0.00000E+0, 2.00000E-1, 0.00000E+0, 0.00000E+0,1.00000,1,  100.0,  1333.000,     0.000,   1,1.0000,   0,   1.0,   0,   1.0,   0,   1.0, 1, 1.0000
  2431,'S ',   500.000,   -46.886,   800.000,  -800.000,1.05000,  2431,  1666.000, 0.00000E+0, 2.00000E-1, 0.00000E+0, 0.00000E+0,1.00000,1,  100.0,  1666.000,     0.000,   1,1.0000,   0,   1.0,   0,   1.0,   0,   1.0, 1, 1.0000
  2434,'S ',   500.000,  -337.252,   500.000,  -500.000,1.02000,  2434,  1489.000, 0.00000E+0, 2.00000E-1, 0.00000E+0, 0.00000E+0,1.00000,1,  100.0,  1489.000,     0.000,   1,1.0000,   0,   1.0,   0,   1.0,   0,   1.0, 1, 1.0000
  2438,'EG',   503.000,    32.102,   728.000,  -454.000,1.00900,  2408,  2292.000, 0.00000E+0, 2.00000E-1, 0.00000E+0, 0.00000E+0,1.00000,1,  100.0,  2292.000,     0.000,   1,1.0000
  2438,'ND',     0.000,     0.000,     0.500,     0.000,1.00900,  2408,   100.000, 0.00000E+0, 2.00000E-1, 0.00000E+0, 0.00000E+0,1.00000,0,  100.0,     0.000, -1006.000,   1,1.0000
  2438,'RG',  1195.999,    32.102,  1902.000, -1168.000,1.00900,  2408,  5451.000, 0.00000E+0, 2.00000E-1, 0.00000E+0, 0.00000E+0,1.00000,1,  100.0,  5451.000,     0.000,   1,1.0000
  2438,'S ',   251.000,    32.102,   800.000,  -800.000,1.00900,  2408,  1146.000, 0.00000E+0, 2.00000E-1, 0.00000E+0, 0.00000E+0,1.00000,1,  100.0,  1146.000,     0.000,   1,1.0000,   0,   1.0,   0,   1.0,   0,   1.0, 1, 1.0000
  2438,'SG',   901.000,    32.102,  2301.000, -1053.000,1.00900,  2408,  4110.000, 0.00000E+0, 2.00000E-1, 0.00000E+0, 0.00000E+0,1.00000,1,  100.0,  4110.000,     0.000,   1,1.0000
  2438,'SH',   233.000,    32.102,   659.000,  -523.000,1.00900,  2408,  1460.000, 0.00000E+0, 2.00000E-1, 0.00000E+0, 0.00000E+0,1.00000,1,  100.0,  1460.000,     0.000,   1,1.0000
  2438,'SW',   704.000,    32.102,   561.000,  -553.000,1.00900,  2408,  3210.000, 0.00000E+0, 2.00000E-1, 0.00000E+0, 0.00000E+0,1.00000,1,  100.0,  3210.000,     0.000,   1,1.0000,   0,   1.0,   0,   1.0,   0,   1.0, 1, 1.0000
  2438,'WG',  1276.000,    32.102,  1910.000, -1150.000,1.00900,  2408,  5817.000, 0.00000E+0, 2.00000E-1, 0.00000E+0, 0.00000E+0,1.00000,1,  100.0,  5817.000,     0.000,   1,1.0000
  2439,'S ',  1000.000,  -242.186,   800.000,  -800.000,1.02000,  2409,  1666.000, 0.00000E+0, 2.00000E-1, 0.00000E+0, 0.00000E+0,1.00000,1,  100.0,  1666.000,     0.000,   1,1.0000,   0,   1.0,   0,   1.0,   0,   1.0, 1, 1.0000
  2533,'S ',  1899.000,   127.613,  1100.000,  -820.000,1.00900,  2503,  1999.000, 0.00000E+0, 2.00000E-1, 0.00000E+0, 0.00000E+0,1.00000,1,  100.0,  1999.000,     0.000,   1,1.0000,   0,   1.0,   0,   1.0,   0,   1.0, 1, 1.0000
  2630,'G ',  2282.000,   184.814,  1346.000, -1346.000,1.00400,  2610,  3947.000, 0.00000E+0, 2.00000E-1, 0.00000E+0, 0.00000E+0,1.00000,1,  100.0,  3947.000,     0.000,   1,1.0000
  2631,'S ',   232.000,    32.063,   350.000,  -350.000,1.01500,  2611,   520.000, 0.00000E+0, 2.00000E-1, 0.00000E+0, 0.00000E+0,1.00000,1,  100.0,   520.000,     0.000,   1,1.0000,   0,   1.0,   0,   1.0,   0,   1.0, 1, 1.0000
  2634,'C ',  1537.000,   -18.880,   950.000,  -950.000,1.03000,  2604,  1900.000, 0.00000E+0, 2.00000E-1, 0.00000E+0, 0.00000E+0,1.00000,1,  100.0,  1618.000,     0.000,   1,1.0000
  2637,'H ',    83.000,    40.647,   110.000,  -110.000,1.01357,  2612,   200.000, 0.00000E+0, 2.00000E-1, 0.00000E+0, 0.00000E+0,1.00000,1,  100.0,    87.000,     0.000,   1,1.0000
  2638,'H ',   200.000,     7.740,   100.000,  -100.000,1.01500,  2608,   407.000, 0.00000E+0, 2.00000E-1, 0.00000E+0, 0.00000E+0,1.00000,1,  100.0,   407.000,     0.000,   1,1.0000
  3133,'NG',    31.000,   -12.551,    42.000,   -29.000,0.99272,  3103,    80.000, 0.00000E+0, 2.00000E-1, 0.00000E+0, 0.00000E+0,1.00000,1,  100.0,    62.000,     0.000,   1,1.0000
  3133,'SC',     0.000,     0.000,   500.000,  -500.000,0.99272,  3103,   300.000, 0.00000E+0, 2.00000E-1, 0.00000E+0, 0.00000E+0,1.00000,0,  100.0,     0.100,     0.000,   1,1.0000
  3135,'MG',   206.000,    42.757,   239.000,  -201.000,1.00000,  3105,   541.000, 0.00000E+0, 2.00000E-1, 0.00000E+0, 0.00000E+0,1.00000,1,  100.0,   541.000,     0.000,   1,1.0000
  3135,'NG',    14.000,    42.757,   100.000,   -85.000,1.00000,  3105,    38.000, 0.00000E+0, 2.00000E-1, 0.00000E+0, 0.00000E+0,1.00000,1,  100.0,    38.000,     0.000,   1,1.0000
  3234,'DG',   104.000,   101.000,   101.000,   -75.000,1.01000,  3204,   177.000, 0.00000E+0, 2.00000E-1, 0.00000E+0, 0.00000E+0,1.00000,1,  100.0,   177.000,     0.000,   1,1.0000
  3234,'MG',  2261.000,   118.878,  1244.000, -1234.000,1.01000,  3204,  3853.000, 0.00000E+0, 2.00000E-1, 0.00000E+0, 0.00000E+0,1.00000,1,  100.0,  3853.000,     0.000,   1,1.0000
  3234,'NG',   608.000,   118.878,   382.000,  -212.000,1.01000,  3204,  1037.000, 0.00000E+0, 2.00000E-1, 0.00000E+0, 0.00000E+0,1.00000,1,  100.0,  1037.000,     0.000,   1,1.0000
  3234,'NW',  1021.000,   118.878,   150.000,  -110.000,1.01000,  3204,  1740.000, 0.00000E+0, 2.00000E-1, 0.00000E+0, 0.00000E+0,1.00000,1,  100.0,  1740.000,     0.000,   1,1.0000,   0,   1.0,   0,   1.0,   0,   1.0, 1, 1.0000
  3333,'CG',   620.000,    81.668,   398.000,  -226.000,1.00000,  3303,  1012.000, 0.00000E+0, 2.00000E-1, 0.00000E+0, 0.00000E+0,1.00000,1,  100.0,  1012.000,     0.000,   1,1.0000
  3333,'NG',   191.000,    81.668,   202.000,  -143.000,1.00000,  3303,   312.000, 0.00000E+0, 2.00000E-1, 0.00000E+0, 0.00000E+0,1.00000,1,  100.0,   312.000,     0.000,   1,1.0000
  3432,'NP',     0.000,     0.000,  1568.000,  -941.000,1.00000,  3402,  3746.000, 0.00000E+0, 2.00000E-1, 0.00000E+0, 0.00000E+0,1.00000,0,  100.0,  3746.000, -2841.000,   1,1.0000
  3433,'NG',   481.000,    25.641,   231.000,  -175.000,1.00000,  3403,   921.000, 0.00000E+0, 2.00000E-1, 0.00000E+0, 0.00000E+0,1.00000,1,  100.0,   921.000,     0.000,   1,1.0000
  3433,'S ',   745.000,    25.641,   939.000,  -562.000,1.00000,  3403,  1426.000, 0.00000E+0, 2.00000E-1, 0.00000E+0, 0.00000E+0,1.00000,1,  100.0,  1426.000,     0.000,   1,1.0000,   0,   1.0,   0,   1.0,   0,   1.0, 1, 1.0000
  3531,'CE',   783.000,    30.853,  1004.000,  -599.000,1.00000,  3501,  1424.000, 0.00000E+0, 2.00000E-1, 0.00000E+0, 0.00000E+0,1.00000,1,  100.0,  1424.000,     0.000,   1,1.0000
  3531,'NE',   293.000,    30.853,   253.000,  -181.000,1.00000,  3501,   533.000, 0.00000E+0, 2.00000E-1, 0.00000E+0, 0.00000E+0,1.00000,1,  100.0,   533.000,     0.000,   1,1.0000
  3531,'NH',    13.000,    13.000,    13.000,   -10.000,1.00000,  3501,    24.000, 0.00000E+0, 2.00000E-1, 0.00000E+0, 0.00000E+0,1.00000,1,  100.0,    24.000,     0.000,   1,1.0000
  3631,'NB',    30.000,   -14.000,    20.000,   -14.000,1.01500,  3601,    96.000, 0.00000E+0, 2.00000E-1, 0.00000E+0, 0.00000E+0,1.00000,1,  100.0,    96.000,     0.000,   1,1.0000
  3631,'NG',    67.000,   -33.095,    74.000,   -34.000,1.01500,  3601,   210.000, 0.00000E+0, 2.00000E-1, 0.00000E+0, 0.00000E+0,1.00000,1,  100.0,   210.000,     0.000,   1,1.0000
  3731,'NH',   222.000,  -121.000,   200.000,  -121.000,1.00000,  3701,   400.000, 0.00000E+0, 2.00000E-1, 0.00000E+0, 0.00000E+0,1.00000,1,  100.0,   243.000,     0.000,   1,1.0000
  3831,'NN',  2108.000,   -40.709,  1175.000,  -980.000,1.04900,  3801,  2323.000, 0.00000E+0, 2.00000E-1, 0.00000E+0, 0.00000E+0,1.00000,1,  100.0,  2323.000,     0.000,   1,1.0000
  3835,'ND',     0.000,     0.000,     0.500,     0.000,1.03500,  3805,   100.000, 0.00000E+0, 2.00000E-1, 0.00000E+0, 0.00000E+0,1.00000,0,  100.0,     0.000,  -510.000,   1,1.0000
  3835,'NG',   229.000,    28.865,   662.000,  -479.000,1.03500,  3805,  2025.000, 0.00000E+0, 2.00000E-1, 0.00000E+0, 0.00000E+0,1.00000,1,  100.0,  2025.000,     0.000,   1,1.0000
  3835,'S ',   150.000,    28.865,   500.000,  -500.000,1.03500,  3805,  1333.000, 0.00000E+0, 2.00000E-1, 0.00000E+0, 0.00000E+0,1.00000,1,  100.0,  1333.000,     0.000,   1,1.0000,   0,   1.0,   0,   1.0,   0,   1.0, 1, 1.0000
  3836,'DG',   679.000,    -6.822,   476.000,  -352.000,1.01900,  3806,  1497.000, 0.00000E+0, 2.00000E-1, 0.00000E+0, 0.00000E+0,1.00000,1,  100.0,  1497.000,     0.000,   1,1.0000
  3931,'NB',   235.000,    72.471,   151.000,  -115.000,1.07000,  3921,   567.000, 0.00000E+0, 2.00000E-1, 0.00000E+0, 0.00000E+0,1.00000,1,  100.0,   567.000,     0.000,   1,1.0000
  3931,'NH',  1212.000,    72.471,  1284.000,  -946.000,1.07000,  3921,  2875.000, 0.00000E+0, 2.00000E-1, 0.00000E+0, 0.00000E+0,1.00000,1,  100.0,  2875.000,     0.000,   1,1.0000
  3932,'S ',  1355.000,  -242.757,  1150.000,  -500.000,1.00000,  3902,  1426.000, 0.00000E+0, 2.00000E-1, 0.00000E+0, 0.00000E+0,1.00000,1,  100.0,  1426.000,     0.000,   1,1.0000,   0,   1.0,   0,   1.0,   0,   1.0, 1, 1.0000
  3933,'CG',   404.880,    88.652,   363.000,   -82.000,1.02000,  3933,   865.000, 0.00000E+0, 2.00000E-1, 0.00000E+0, 0.00000E+0,1.00000,1,  100.0,   865.000,     0.000,   1,1.0000
  3933,'NB',   161.484,    77.000,    77.000,   -55.000,1.02000,  3933,   345.000, 0.00000E+0, 2.00000E-1, 0.00000E+0, 0.00000E+0,1.00000,1,  100.0,   345.000,     0.000,   1,1.0000
  3933,'ND',     0.000,     0.000,     0.500,     0.000,1.02000,  3933,   100.000, 0.00000E+0, 2.00000E-1, 0.00000E+0, 0.00000E+0,1.00000,0,  100.0,     0.000,  -449.000,   1,1.0000
  3933,'NG',   901.970,    88.652,   500.000,  -307.000,1.02000,  3933,  1927.000, 0.00000E+0, 2.00000E-1, 0.00000E+0, 0.00000E+0,1.00000,1,  100.0,  1927.000,     0.000,   1,1.0000
  3933,'NH',  1275.022,    88.652,  1256.000, -1041.000,1.02000,  3933,  2774.000, 0.00000E+0, 2.00000E-1, 0.00000E+0, 0.00000E+0,1.00000,1,  100.0,  2724.000,     0.000,   1,1.0000
  3933,'NW',   346.372,    88.652,   200.000,  -200.000,1.02000,  3933,   740.000, 0.00000E+0, 2.00000E-1, 0.00000E+0, 0.00000E+0,1.00000,1,  100.0,   740.000,     0.000,   1,1.0000,   0,   1.0,   0,   1.0,   0,   1.0, 1, 1.0000
  3933,'S ',   623.937,    88.652,   800.000,  -500.000,1.02000,  3933,  1333.000, 0.00000E+0, 2.00000E-1, 0.00000E+0, 0.00000E+0,1.00000,1,  100.0,  1333.000,     0.000,   1,1.0000,   0,   1.0,   0,   1.0,   0,   1.0, 1, 1.0000
...